Version 4
SHEET 1 1348 836
WIRE 1104 -64 960 -64
WIRE 960 -48 960 -64
WIRE 1104 -48 1104 -64
WIRE 1104 80 1104 32
WIRE 960 96 960 32
WIRE 448 160 320 160
WIRE 704 176 512 176
WIRE 912 176 784 176
WIRE 448 192 368 192
WIRE 368 272 368 192
WIRE 368 400 368 352
WIRE 320 480 320 160
WIRE 704 480 320 480
WIRE 960 480 960 192
WIRE 960 480 784 480
WIRE 960 528 960 480
WIRE 960 656 960 608
FLAG 368 400 0
FLAG 960 656 0
FLAG 1104 80 0
FLAG 592 0 VCC
FLAG 592 80 0
SYMBOL res 800 160 R90
WINDOW 0 0 56 VBottom 2
WINDOW 3 32 56 VTop 2
SYMATTR InstName R1
SYMATTR Value 10k
SYMBOL res 800 464 R90
WINDOW 0 0 56 VBottom 2
WINDOW 3 32 56 VTop 2
SYMATTR InstName R2
SYMATTR Value 1k
SYMBOL voltage 368 256 R0
WINDOW 123 0 0 Left 0
WINDOW 39 0 0 Left 0
SYMATTR InstName V1
SYMATTR Value PULSE(10 300 0 0.01n 0.01n 0.05m 0.1m)
SYMBOL res 944 512 R0
SYMATTR InstName SHUNT
SYMATTR Value 1k
SYMBOL voltage 1104 -64 R0
WINDOW 123 0 0 Left 0
WINDOW 39 0 0 Left 0
SYMATTR InstName V2
SYMATTR Value 10k
SYMBOL nmos 912 96 R0
SYMATTR InstName M1
SYMBOL res 944 -64 R0
SYMATTR InstName LOAD
SYMATTR Value 10
SYMBOL voltage 592 -16 R0
WINDOW 123 0 0 Left 0
WINDOW 39 0 0 Left 0
SYMATTR InstName V3
SYMATTR Value 5v
SYMBOL OpAmps\\UniversalOpAmp 480 176 R0
SYMATTR InstName U2
TEXT 416 400 Left 2 !.tran 1ms
